14

O 6.93980633354 21.1283942299 22.167
O 7.71980633354 19.0603942299 22.746
N 12.1138063335 25.0943942299 21.131
C 11.5948063335 23.7163942299 21.251
C 12.6378063335 22.7313942299 20.696
C 11.2928063335 23.3933942299 22.731
C 10.3618063335 22.2033942299 22.888
C 8.96380633354 22.3813942299 22.731
C 10.8718063335 20.9193942299 23.204
C 8.09080633354 21.2833942299 22.892
C 9.98580633354 19.8243942299 23.356
C 8.59380633354 20.0243942299 23.202
C 11.0088063335 26.0443942299 21.002
C 6.48980633354 19.7733942299 22.448




